3014922
  -OEChem-08102421112D

 61 59  0     0  0  0  0  0  0999 V2000
    2.4335    1.5000    0.0000 O   0  5  0  0  0  0  0  0  0  0  0  0
    3.2996    0.0000    0.0000 O   0  0  0  0  0  0  0  0  0  0  0  0
    4.0010    8.1210    0.0000 N   0  3  0  0  0  0  0  0  0  0  0  0
    4.8671    8.6210    0.0000 C   0  0  0  0  0  0  0  0  0  0  0  0
    3.1350    7.6210    0.0000 C   0  0  0  0  0  0  0  0  0  0  0  0
    3.5010    8.9871    0.0000 C   0  0  0  0  0  0  0  0  0  0  0  0
    4.5010    7.2550    0.0000 C   0  0  0  0  0  0  0  0  0  0  0  0
    5.7331    8.1210    0.0000 C   0  0  0  0  0  0  0  0  0  0  0  0
    2.2690    8.1210    0.0000 C   0  0  0  0  0  0  0  0  0  0  0  0
    4.0010    9.8531    0.0000 C   0  0  0  0  0  0  0  0  0  0  0  0
    4.0010    6.3890    0.0000 C   0  0  0  0  0  0  0  0  0  0  0  0
    6.5991    8.6210    0.0000 C   0  0  0  0  0  0  0  0  0  0  0  0
    1.4030    7.6210    0.0000 C   0  0  0  0  0  0  0  0  0  0  0  0
    3.5010   10.7191    0.0000 C   0  0  0  0  0  0  0  0  0  0  0  0
    4.5010    5.5230    0.0000 C   0  0  0  0  0  0  0  0  0  0  0  0
    7.4651    8.1210    0.0000 C   0  0  0  0  0  0  0  0  0  0  0  0
    0.5369    8.1210    0.0000 C   0  0  0  0  0  0  0  0  0  0  0  0
    4.0010   11.5851    0.0000 C   0  0  0  0  0  0  0  0  0  0  0  0
    4.0010    4.6569    0.0000 C   0  0  0  0  0  0  0  0  0  0  0  0
    4.1656    1.5000    0.0000 C   0  0  0  0  0  0  0  0  0  0  0  0
    3.2996    1.0000    0.0000 C   0  0  0  0  0  0  0  0  0  0  0  0
    5.0316    1.0000    0.0000 C   0  0  0  0  0  0  0  0  0  0  0  0
    5.2656    9.0960    0.0000 H   0  0  0  0  0  0  0  0  0  0  0  0
    4.4685    9.0960    0.0000 H   0  0  0  0  0  0  0  0  0  0  0  0
    2.7365    7.1461    0.0000 H   0  0  0  0  0  0  0  0  0  0  0  0
    3.5335    7.1461    0.0000 H   0  0  0  0  0  0  0  0  0  0  0  0
    3.0261    9.3856    0.0000 H   0  0  0  0  0  0  0  0  0  0  0  0
    3.0261    8.5885    0.0000 H   0  0  0  0  0  0  0  0  0  0  0  0
    4.9760    6.8565    0.0000 H   0  0  0  0  0  0  0  0  0  0  0  0
    4.9760    7.6535    0.0000 H   0  0  0  0  0  0  0  0  0  0  0  0
    5.3346    7.6461    0.0000 H   0  0  0  0  0  0  0  0  0  0  0  0
    6.1316    7.6461    0.0000 H   0  0  0  0  0  0  0  0  0  0  0  0
    2.6675    8.5960    0.0000 H   0  0  0  0  0  0  0  0  0  0  0  0
    1.8705    8.5960    0.0000 H   0  0  0  0  0  0  0  0  0  0  0  0
    4.4760    9.4546    0.0000 H   0  0  0  0  0  0  0  0  0  0  0  0
    4.4760   10.2516    0.0000 H   0  0  0  0  0  0  0  0  0  0  0  0
    3.5261    6.7875    0.0000 H   0  0  0  0  0  0  0  0  0  0  0  0
    3.5261    5.9905    0.0000 H   0  0  0  0  0  0  0  0  0  0  0  0
    6.9976    9.0960    0.0000 H   0  0  0  0  0  0  0  0  0  0  0  0
    6.2006    9.0960    0.0000 H   0  0  0  0  0  0  0  0  0  0  0  0
    1.0044    7.1461    0.0000 H   0  0  0  0  0  0  0  0  0  0  0  0
    1.8015    7.1461    0.0000 H   0  0  0  0  0  0  0  0  0  0  0  0
    3.0261   11.1176    0.0000 H   0  0  0  0  0  0  0  0  0  0  0  0
    3.0261   10.3206    0.0000 H   0  0  0  0  0  0  0  0  0  0  0  0
    4.9760    5.1244    0.0000 H   0  0  0  0  0  0  0  0  0  0  0  0
    4.9760    5.9215    0.0000 H   0  0  0  0  0  0  0  0  0  0  0  0
    7.1551    7.5841    0.0000 H   0  0  0  0  0  0  0  0  0  0  0  0
    8.0021    7.8110    0.0000 H   0  0  0  0  0  0  0  0  0  0  0  0
    7.7751    8.6580    0.0000 H   0  0  0  0  0  0  0  0  0  0  0  0
    0.8469    8.6580    0.0000 H   0  0  0  0  0  0  0  0  0  0  0  0
    0.0000    8.4310    0.0000 H   0  0  0  0  0  0  0  0  0  0  0  0
    0.2269    7.5841    0.0000 H   0  0  0  0  0  0  0  0  0  0  0  0
    4.5380   11.2751    0.0000 H   0  0  0  0  0  0  0  0  0  0  0  0
    4.3110   12.1221    0.0000 H   0  0  0  0  0  0  0  0  0  0  0  0
    3.4641   11.8951    0.0000 H   0  0  0  0  0  0  0  0  0  0  0  0
    3.4641    4.9669    0.0000 H   0  0  0  0  0  0  0  0  0  0  0  0
    3.6910    4.1200    0.0000 H   0  0  0  0  0  0  0  0  0  0  0  0
    4.5380    4.3469    0.0000 H   0  0  0  0  0  0  0  0  0  0  0  0
    4.1656    2.1200    0.0000 H   0  0  0  0  0  0  0  0  0  0  0  0
    5.0316    0.3800    0.0000 H   0  0  0  0  0  0  0  0  0  0  0  0
    5.5685    1.3100    0.0000 H   0  0  0  0  0  0  0  0  0  0  0  0
  1 21  1  0  0  0  0
  2 21  2  0  0  0  0
  3  4  1  0  0  0  0
  3  5  1  0  0  0  0
  3  6  1  0  0  0  0
  3  7  1  0  0  0  0
  4  8  1  0  0  0  0
  4 23  1  0  0  0  0
  4 24  1  0  0  0  0
  5  9  1  0  0  0  0
  5 25  1  0  0  0  0
  5 26  1  0  0  0  0
  6 10  1  0  0  0  0
  6 27  1  0  0  0  0
  6 28  1  0  0  0  0
  7 11  1  0  0  0  0
  7 29  1  0  0  0  0
  7 30  1  0  0  0  0
  8 12  1  0  0  0  0
  8 31  1  0  0  0  0
  8 32  1  0  0  0  0
  9 13  1  0  0  0  0
  9 33  1  0  0  0  0
  9 34  1  0  0  0  0
 10 14  1  0  0  0  0
 10 35  1  0  0  0  0
 10 36  1  0  0  0  0
 11 15  1  0  0  0  0
 11 37  1  0  0  0  0
 11 38  1  0  0  0  0
 12 16  1  0  0  0  0
 12 39  1  0  0  0  0
 12 40  1  0  0  0  0
 13 17  1  0  0  0  0
 13 41  1  0  0  0  0
 13 42  1  0  0  0  0
 14 18  1  0  0  0  0
 14 43  1  0  0  0  0
 14 44  1  0  0  0  0
 15 19  1  0  0  0  0
 15 45  1  0  0  0  0
 15 46  1  0  0  0  0
 16 47  1  0  0  0  0
 16 48  1  0  0  0  0
 16 49  1  0  0  0  0
 17 50  1  0  0  0  0
 17 51  1  0  0  0  0
 17 52  1  0  0  0  0
 18 53  1  0  0  0  0
 18 54  1  0  0  0  0
 18 55  1  0  0  0  0
 19 56  1  0  0  0  0
 19 57  1  0  0  0  0
 19 58  1  0  0  0  0
 20 21  1  0  0  0  0
 20 22  2  0  0  0  0
 20 59  1  0  0  0  0
 22 60  1  0  0  0  0
 22 61  1  0  0  0  0
M  CHG  2   1  -1   3   1
M  END
> <PUBCHEM_COMPOUND_CID>
3014922

> <PUBCHEM_COMPOUND_CANONICALIZED>
1

> <PUBCHEM_CACTVS_COMPLEXITY>
167

> <PUBCHEM_CACTVS_HBOND_ACCEPTOR>
2

> <PUBCHEM_CACTVS_HBOND_DONOR>
0

> <PUBCHEM_CACTVS_ROTATABLE_BOND>
12

> <PUBCHEM_CACTVS_SUBSKEYS>
AAADcfB6MAAAAAAAAAAAAAAAAAAAAAAAAAAAAAAAAAAAAAAAAAAAHgAAAAAACADBgAQCCAMAAACIACDSCAAAAAAAAAAIAAAIAEAABAAAgAAEAAAAAACAAIAAAAAAAAAAAAAAAAAAAAAAAAAAAAAAAAAAAA==

> <PUBCHEM_IUPAC_OPENEYE_NAME>
prop-2-enoate;tetrabutylammonium

> <PUBCHEM_IUPAC_CAS_NAME>
2-propenoate;tetrabutylammonium

> <PUBCHEM_IUPAC_NAME_MARKUP>
prop-2-enoate;tetrabutylazanium

> <PUBCHEM_IUPAC_NAME>
prop-2-enoate;tetrabutylazanium

> <PUBCHEM_IUPAC_SYSTEMATIC_NAME>
prop-2-enoate;tetrabutylazanium

> <PUBCHEM_IUPAC_TRADITIONAL_NAME>
acrylate;tetrabutylammonium

> <PUBCHEM_IUPAC_INCHI>
InChI=1S/C16H36N.C3H4O2/c1-5-9-13-17(14-10-6-2,15-11-7-3)16-12-8-4;1-2-3(4)5/h5-16H2,1-4H3;2H,1H2,(H,4,5)/q+1;/p-1

> <PUBCHEM_IUPAC_INCHIKEY>
YFIQXXZYXQTDGB-UHFFFAOYSA-M

> <PUBCHEM_EXACT_MASS>
313.298079487

> <PUBCHEM_MOLECULAR_FORMULA>
C19H39NO2

> <PUBCHEM_MOLECULAR_WEIGHT>
313.5

> <PUBCHEM_OPENEYE_CAN_SMILES>
CCCC[N+](CCCC)(CCCC)CCCC.C=CC(=O)[O-]

> <PUBCHEM_OPENEYE_ISO_SMILES>
CCCC[N+](CCCC)(CCCC)CCCC.C=CC(=O)[O-]

> <PUBCHEM_CACTVS_TPSA>
40.1

> <PUBCHEM_MONOISOTOPIC_WEIGHT>
313.298079487

> <PUBCHEM_TOTAL_CHARGE>
0

> <PUBCHEM_HEAVY_ATOM_COUNT>
22

> <PUBCHEM_ATOM_DEF_STEREO_COUNT>
0

> <PUBCHEM_ATOM_UDEF_STEREO_COUNT>
0

> <PUBCHEM_BOND_DEF_STEREO_COUNT>
0

> <PUBCHEM_BOND_UDEF_STEREO_COUNT>
0

> <PUBCHEM_ISOTOPIC_ATOM_COUNT>
0

> <PUBCHEM_COMPONENT_COUNT>
2

> <PUBCHEM_CACTVS_TAUTO_COUNT>
-1

> <PUBCHEM_COORDINATE_TYPE>
1
5
255

$$$$
